*SPEF "ieee 1481-1999"
*DESIGN "tiny_user_project"
*DATE "11:11:11 Fri 11 11, 1111"
*VENDOR "OpenRCX"
*PROGRAM "Parallel Extraction"
*VERSION "1.0"
*DESIGN_FLOW "NAME_SCOPE LOCAL" "PIN_CAP NONE"
*DIVIDER /
*DELIMITER :
*BUS_DELIMITER []
*T_UNIT 1 NS
*C_UNIT 1 PF
*R_UNIT 1 OHM
*L_UNIT 1 HENRY

*NAME_MAP
*1 io_in[0]
*2 io_in[10]
*3 io_in[11]
*4 io_in[12]
*5 io_in[13]
*6 io_in[14]
*7 io_in[15]
*8 io_in[16]
*9 io_in[17]
*10 io_in[18]
*11 io_in[19]
*12 io_in[1]
*13 io_in[20]
*14 io_in[21]
*15 io_in[22]
*16 io_in[23]
*17 io_in[24]
*18 io_in[25]
*19 io_in[26]
*20 io_in[27]
*21 io_in[28]
*22 io_in[29]
*23 io_in[2]
*24 io_in[30]
*25 io_in[31]
*26 io_in[32]
*27 io_in[33]
*28 io_in[34]
*29 io_in[35]
*30 io_in[36]
*31 io_in[37]
*32 io_in[3]
*33 io_in[4]
*34 io_in[5]
*35 io_in[6]
*36 io_in[7]
*37 io_in[8]
*38 io_in[9]
*39 net37
*40 net47
*41 net48
*42 net49
*43 net50
*44 net51
*45 net52
*46 net53
*47 net54
*48 net55
*49 net56
*50 net38
*51 net57
*52 net58
*53 net59
*54 net60
*55 net61
*56 net62
*57 net63
*58 net64
*59 net65
*60 net66
*61 net39
*62 net67
*63 net68
*64 net69
*65 net70
*66 net71
*67 net72
*68 net73
*69 net74
*70 net40
*71 net41
*72 net42
*73 net43
*74 net44
*75 net45
*76 net46
*77 net75
*78 net9
*79 net10
*80 net11
*81 net12
*82 net13
*83 net14
*84 net15
*85 net16
*86 net17
*87 net18
*88 net76
*89 net19
*90 net20
*91 net21
*92 net22
*93 net23
*94 net24
*95 net25
*96 net26
*97 net27
*98 net28
*99 net1
*100 net29
*101 net30
*102 net31
*103 net32
*104 net33
*105 net34
*106 net35
*107 net36
*108 net2
*109 net3
*110 net4
*111 net5
*112 net6
*113 net7
*114 net8
*115 FILLER_0_109
*116 FILLER_0_113
*117 FILLER_0_125
*118 FILLER_0_137
*119 FILLER_0_141
*120 FILLER_0_15
*121 FILLER_0_153
*122 FILLER_0_165
*123 FILLER_0_169
*124 FILLER_0_181
*125 FILLER_0_193
*126 FILLER_0_197
*127 FILLER_0_209
*128 FILLER_0_221
*129 FILLER_0_225
*130 FILLER_0_237
*131 FILLER_0_249
*132 FILLER_0_253
*133 FILLER_0_265
*134 FILLER_0_27
*135 FILLER_0_277
*136 FILLER_0_281
*137 FILLER_0_29
*138 FILLER_0_293
*139 FILLER_0_3
*140 FILLER_0_41
*141 FILLER_0_53
*142 FILLER_0_57
*143 FILLER_0_69
*144 FILLER_0_81
*145 FILLER_0_85
*146 FILLER_0_97
*147 FILLER_10_109
*148 FILLER_10_121
*149 FILLER_10_133
*150 FILLER_10_139
*151 FILLER_10_141
*152 FILLER_10_15
*153 FILLER_10_153
*154 FILLER_10_165
*155 FILLER_10_177
*156 FILLER_10_189
*157 FILLER_10_195
*158 FILLER_10_197
*159 FILLER_10_209
*160 FILLER_10_221
*161 FILLER_10_233
*162 FILLER_10_245
*163 FILLER_10_251
*164 FILLER_10_253
*165 FILLER_10_265
*166 FILLER_10_27
*167 FILLER_10_277
*168 FILLER_10_289
*169 FILLER_10_29
*170 FILLER_10_297
*171 FILLER_10_3
*172 FILLER_10_41
*173 FILLER_10_53
*174 FILLER_10_65
*175 FILLER_10_77
*176 FILLER_10_83
*177 FILLER_10_85
*178 FILLER_10_97
*179 FILLER_11_105
*180 FILLER_11_111
*181 FILLER_11_113
*182 FILLER_11_125
*183 FILLER_11_137
*184 FILLER_11_149
*185 FILLER_11_15
*186 FILLER_11_161
*187 FILLER_11_167
*188 FILLER_11_169
*189 FILLER_11_181
*190 FILLER_11_193
*191 FILLER_11_205
*192 FILLER_11_217
*193 FILLER_11_223
*194 FILLER_11_225
*195 FILLER_11_237
*196 FILLER_11_249
*197 FILLER_11_261
*198 FILLER_11_27
*199 FILLER_11_273
*200 FILLER_11_279
*201 FILLER_11_281
*202 FILLER_11_293
*203 FILLER_11_3
*204 FILLER_11_39
*205 FILLER_11_51
*206 FILLER_11_55
*207 FILLER_11_57
*208 FILLER_11_69
*209 FILLER_11_81
*210 FILLER_11_93
*211 FILLER_12_109
*212 FILLER_12_121
*213 FILLER_12_133
*214 FILLER_12_139
*215 FILLER_12_141
*216 FILLER_12_15
*217 FILLER_12_153
*218 FILLER_12_165
*219 FILLER_12_177
*220 FILLER_12_189
*221 FILLER_12_195
*222 FILLER_12_197
*223 FILLER_12_209
*224 FILLER_12_221
*225 FILLER_12_233
*226 FILLER_12_245
*227 FILLER_12_251
*228 FILLER_12_253
*229 FILLER_12_265
*230 FILLER_12_27
*231 FILLER_12_277
*232 FILLER_12_289
*233 FILLER_12_29
*234 FILLER_12_297
*235 FILLER_12_3
*236 FILLER_12_41
*237 FILLER_12_53
*238 FILLER_12_65
*239 FILLER_12_77
*240 FILLER_12_83
*241 FILLER_12_85
*242 FILLER_12_97
*243 FILLER_13_105
*244 FILLER_13_111
*245 FILLER_13_113
*246 FILLER_13_125
*247 FILLER_13_137
*248 FILLER_13_149
*249 FILLER_13_15
*250 FILLER_13_161
*251 FILLER_13_167
*252 FILLER_13_169
*253 FILLER_13_181
*254 FILLER_13_193
*255 FILLER_13_205
*256 FILLER_13_217
*257 FILLER_13_223
*258 FILLER_13_225
*259 FILLER_13_237
*260 FILLER_13_249
*261 FILLER_13_261
*262 FILLER_13_27
*263 FILLER_13_273
*264 FILLER_13_279
*265 FILLER_13_281
*266 FILLER_13_293
*267 FILLER_13_3
*268 FILLER_13_39
*269 FILLER_13_51
*270 FILLER_13_55
*271 FILLER_13_57
*272 FILLER_13_69
*273 FILLER_13_81
*274 FILLER_13_93
*275 FILLER_14_109
*276 FILLER_14_121
*277 FILLER_14_133
*278 FILLER_14_139
*279 FILLER_14_141
*280 FILLER_14_15
*281 FILLER_14_153
*282 FILLER_14_165
*283 FILLER_14_177
*284 FILLER_14_189
*285 FILLER_14_195
*286 FILLER_14_197
*287 FILLER_14_209
*288 FILLER_14_221
*289 FILLER_14_233
*290 FILLER_14_245
*291 FILLER_14_251
*292 FILLER_14_253
*293 FILLER_14_265
*294 FILLER_14_27
*295 FILLER_14_277
*296 FILLER_14_289
*297 FILLER_14_29
*298 FILLER_14_297
*299 FILLER_14_3
*300 FILLER_14_41
*301 FILLER_14_53
*302 FILLER_14_65
*303 FILLER_14_77
*304 FILLER_14_83
*305 FILLER_14_85
*306 FILLER_14_97
*307 FILLER_15_105
*308 FILLER_15_111
*309 FILLER_15_113
*310 FILLER_15_125
*311 FILLER_15_137
*312 FILLER_15_149
*313 FILLER_15_15
*314 FILLER_15_161
*315 FILLER_15_167
*316 FILLER_15_169
*317 FILLER_15_181
*318 FILLER_15_193
*319 FILLER_15_205
*320 FILLER_15_217
*321 FILLER_15_223
*322 FILLER_15_225
*323 FILLER_15_237
*324 FILLER_15_249
*325 FILLER_15_261
*326 FILLER_15_27
*327 FILLER_15_273
*328 FILLER_15_279
*329 FILLER_15_281
*330 FILLER_15_293
*331 FILLER_15_3
*332 FILLER_15_39
*333 FILLER_15_51
*334 FILLER_15_55
*335 FILLER_15_57
*336 FILLER_15_69
*337 FILLER_15_81
*338 FILLER_15_93
*339 FILLER_16_109
*340 FILLER_16_121
*341 FILLER_16_133
*342 FILLER_16_139
*343 FILLER_16_141
*344 FILLER_16_15
*345 FILLER_16_153
*346 FILLER_16_165
*347 FILLER_16_177
*348 FILLER_16_189
*349 FILLER_16_195
*350 FILLER_16_197
*351 FILLER_16_209
*352 FILLER_16_221
*353 FILLER_16_233
*354 FILLER_16_245
*355 FILLER_16_251
*356 FILLER_16_253
*357 FILLER_16_265
*358 FILLER_16_27
*359 FILLER_16_277
*360 FILLER_16_289
*361 FILLER_16_29
*362 FILLER_16_297
*363 FILLER_16_3
*364 FILLER_16_41
*365 FILLER_16_53
*366 FILLER_16_65
*367 FILLER_16_77
*368 FILLER_16_83
*369 FILLER_16_85
*370 FILLER_16_97
*371 FILLER_17_105
*372 FILLER_17_111
*373 FILLER_17_113
*374 FILLER_17_125
*375 FILLER_17_137
*376 FILLER_17_149
*377 FILLER_17_15
*378 FILLER_17_161
*379 FILLER_17_167
*380 FILLER_17_169
*381 FILLER_17_181
*382 FILLER_17_193
*383 FILLER_17_205
*384 FILLER_17_217
*385 FILLER_17_223
*386 FILLER_17_225
*387 FILLER_17_237
*388 FILLER_17_249
*389 FILLER_17_261
*390 FILLER_17_27
*391 FILLER_17_273
*392 FILLER_17_279
*393 FILLER_17_281
*394 FILLER_17_293
*395 FILLER_17_3
*396 FILLER_17_39
*397 FILLER_17_51
*398 FILLER_17_55
*399 FILLER_17_57
*400 FILLER_17_69
*401 FILLER_17_81
*402 FILLER_17_93
*403 FILLER_18_109
*404 FILLER_18_121
*405 FILLER_18_133
*406 FILLER_18_139
*407 FILLER_18_141
*408 FILLER_18_15
*409 FILLER_18_153
*410 FILLER_18_165
*411 FILLER_18_177
*412 FILLER_18_189
*413 FILLER_18_195
*414 FILLER_18_197
*415 FILLER_18_209
*416 FILLER_18_221
*417 FILLER_18_233
*418 FILLER_18_245
*419 FILLER_18_251
*420 FILLER_18_253
*421 FILLER_18_265
*422 FILLER_18_27
*423 FILLER_18_277
*424 FILLER_18_289
*425 FILLER_18_29
*426 FILLER_18_297
*427 FILLER_18_3
*428 FILLER_18_41
*429 FILLER_18_53
*430 FILLER_18_65
*431 FILLER_18_77
*432 FILLER_18_83
*433 FILLER_18_85
*434 FILLER_18_97
*435 FILLER_19_105
*436 FILLER_19_111
*437 FILLER_19_113
*438 FILLER_19_125
*439 FILLER_19_137
*440 FILLER_19_149
*441 FILLER_19_15
*442 FILLER_19_161
*443 FILLER_19_167
*444 FILLER_19_169
*445 FILLER_19_181
*446 FILLER_19_193
*447 FILLER_19_205
*448 FILLER_19_217
*449 FILLER_19_223
*450 FILLER_19_225
*451 FILLER_19_237
*452 FILLER_19_249
*453 FILLER_19_261
*454 FILLER_19_27
*455 FILLER_19_273
*456 FILLER_19_279
*457 FILLER_19_281
*458 FILLER_19_293
*459 FILLER_19_3
*460 FILLER_19_39
*461 FILLER_19_51
*462 FILLER_19_55
*463 FILLER_19_57
*464 FILLER_19_69
*465 FILLER_19_81
*466 FILLER_19_93
*467 FILLER_1_105
*468 FILLER_1_111
*469 FILLER_1_113
*470 FILLER_1_125
*471 FILLER_1_137
*472 FILLER_1_149
*473 FILLER_1_15
*474 FILLER_1_161
*475 FILLER_1_167
*476 FILLER_1_169
*477 FILLER_1_181
*478 FILLER_1_193
*479 FILLER_1_205
*480 FILLER_1_217
*481 FILLER_1_223
*482 FILLER_1_225
*483 FILLER_1_237
*484 FILLER_1_249
*485 FILLER_1_261
*486 FILLER_1_27
*487 FILLER_1_273
*488 FILLER_1_279
*489 FILLER_1_281
*490 FILLER_1_293
*491 FILLER_1_3
*492 FILLER_1_39
*493 FILLER_1_51
*494 FILLER_1_55
*495 FILLER_1_57
*496 FILLER_1_69
*497 FILLER_1_81
*498 FILLER_1_93
*499 FILLER_20_109
*500 FILLER_20_121
*501 FILLER_20_133
*502 FILLER_20_139
*503 FILLER_20_141
*504 FILLER_20_15
*505 FILLER_20_153
*506 FILLER_20_165
*507 FILLER_20_177
*508 FILLER_20_189
*509 FILLER_20_195
*510 FILLER_20_197
*511 FILLER_20_209
*512 FILLER_20_221
*513 FILLER_20_233
*514 FILLER_20_245
*515 FILLER_20_251
*516 FILLER_20_253
*517 FILLER_20_265
*518 FILLER_20_27
*519 FILLER_20_277
*520 FILLER_20_289
*521 FILLER_20_29
*522 FILLER_20_297
*523 FILLER_20_3
*524 FILLER_20_41
*525 FILLER_20_53
*526 FILLER_20_65
*527 FILLER_20_77
*528 FILLER_20_83
*529 FILLER_20_85
*530 FILLER_20_97
*531 FILLER_21_105
*532 FILLER_21_111
*533 FILLER_21_113
*534 FILLER_21_125
*535 FILLER_21_137
*536 FILLER_21_149
*537 FILLER_21_15
*538 FILLER_21_161
*539 FILLER_21_167
*540 FILLER_21_169
*541 FILLER_21_181
*542 FILLER_21_193
*543 FILLER_21_205
*544 FILLER_21_217
*545 FILLER_21_223
*546 FILLER_21_225
*547 FILLER_21_237
*548 FILLER_21_249
*549 FILLER_21_261
*550 FILLER_21_27
*551 FILLER_21_273
*552 FILLER_21_279
*553 FILLER_21_281
*554 FILLER_21_293
*555 FILLER_21_3
*556 FILLER_21_39
*557 FILLER_21_51
*558 FILLER_21_55
*559 FILLER_21_57
*560 FILLER_21_69
*561 FILLER_21_81
*562 FILLER_21_93
*563 FILLER_22_109
*564 FILLER_22_121
*565 FILLER_22_133
*566 FILLER_22_139
*567 FILLER_22_141
*568 FILLER_22_15
*569 FILLER_22_153
*570 FILLER_22_165
*571 FILLER_22_177
*572 FILLER_22_189
*573 FILLER_22_195
*574 FILLER_22_197
*575 FILLER_22_209
*576 FILLER_22_221
*577 FILLER_22_233
*578 FILLER_22_245
*579 FILLER_22_251
*580 FILLER_22_253
*581 FILLER_22_265
*582 FILLER_22_27
*583 FILLER_22_277
*584 FILLER_22_289
*585 FILLER_22_29
*586 FILLER_22_297
*587 FILLER_22_3
*588 FILLER_22_41
*589 FILLER_22_53
*590 FILLER_22_65
*591 FILLER_22_77
*592 FILLER_22_83
*593 FILLER_22_85
*594 FILLER_22_97
*595 FILLER_23_105
*596 FILLER_23_111
*597 FILLER_23_113
*598 FILLER_23_125
*599 FILLER_23_137
*600 FILLER_23_149
*601 FILLER_23_15
*602 FILLER_23_161
*603 FILLER_23_167
*604 FILLER_23_169
*605 FILLER_23_181
*606 FILLER_23_193
*607 FILLER_23_205
*608 FILLER_23_217
*609 FILLER_23_223
*610 FILLER_23_225
*611 FILLER_23_237
*612 FILLER_23_249
*613 FILLER_23_261
*614 FILLER_23_27
*615 FILLER_23_273
*616 FILLER_23_279
*617 FILLER_23_281
*618 FILLER_23_293
*619 FILLER_23_3
*620 FILLER_23_39
*621 FILLER_23_51
*622 FILLER_23_55
*623 FILLER_23_57
*624 FILLER_23_69
*625 FILLER_23_81
*626 FILLER_23_93
*627 FILLER_24_109
*628 FILLER_24_121
*629 FILLER_24_133
*630 FILLER_24_139
*631 FILLER_24_141
*632 FILLER_24_15
*633 FILLER_24_153
*634 FILLER_24_165
*635 FILLER_24_177
*636 FILLER_24_189
*637 FILLER_24_195
*638 FILLER_24_197
*639 FILLER_24_209
*640 FILLER_24_221
*641 FILLER_24_233
*642 FILLER_24_245
*643 FILLER_24_251
*644 FILLER_24_253
*645 FILLER_24_265
*646 FILLER_24_27
*647 FILLER_24_277
*648 FILLER_24_289
*649 FILLER_24_29
*650 FILLER_24_297
*651 FILLER_24_3
*652 FILLER_24_41
*653 FILLER_24_53
*654 FILLER_24_65
*655 FILLER_24_77
*656 FILLER_24_83
*657 FILLER_24_85
*658 FILLER_24_97
*659 FILLER_25_105
*660 FILLER_25_111
*661 FILLER_25_113
*662 FILLER_25_125
*663 FILLER_25_137
*664 FILLER_25_149
*665 FILLER_25_15
*666 FILLER_25_161
*667 FILLER_25_167
*668 FILLER_25_169
*669 FILLER_25_181
*670 FILLER_25_193
*671 FILLER_25_205
*672 FILLER_25_217
*673 FILLER_25_223
*674 FILLER_25_225
*675 FILLER_25_237
*676 FILLER_25_249
*677 FILLER_25_261
*678 FILLER_25_27
*679 FILLER_25_273
*680 FILLER_25_279
*681 FILLER_25_281
*682 FILLER_25_293
*683 FILLER_25_3
*684 FILLER_25_39
*685 FILLER_25_51
*686 FILLER_25_55
*687 FILLER_25_57
*688 FILLER_25_69
*689 FILLER_25_81
*690 FILLER_25_93
*691 FILLER_26_109
*692 FILLER_26_121
*693 FILLER_26_133
*694 FILLER_26_139
*695 FILLER_26_141
*696 FILLER_26_15
*697 FILLER_26_153
*698 FILLER_26_165
*699 FILLER_26_177
*700 FILLER_26_189
*701 FILLER_26_195
*702 FILLER_26_197
*703 FILLER_26_209
*704 FILLER_26_221
*705 FILLER_26_233
*706 FILLER_26_245
*707 FILLER_26_251
*708 FILLER_26_253
*709 FILLER_26_265
*710 FILLER_26_27
*711 FILLER_26_277
*712 FILLER_26_289
*713 FILLER_26_29
*714 FILLER_26_297
*715 FILLER_26_3
*716 FILLER_26_41
*717 FILLER_26_53
*718 FILLER_26_65
*719 FILLER_26_77
*720 FILLER_26_83
*721 FILLER_26_85
*722 FILLER_26_97
*723 FILLER_27_105
*724 FILLER_27_111
*725 FILLER_27_113
*726 FILLER_27_125
*727 FILLER_27_137
*728 FILLER_27_149
*729 FILLER_27_15
*730 FILLER_27_161
*731 FILLER_27_167
*732 FILLER_27_169
*733 FILLER_27_181
*734 FILLER_27_193
*735 FILLER_27_205
*736 FILLER_27_217
*737 FILLER_27_223
*738 FILLER_27_225
*739 FILLER_27_237
*740 FILLER_27_249
*741 FILLER_27_261
*742 FILLER_27_27
*743 FILLER_27_273
*744 FILLER_27_279
*745 FILLER_27_281
*746 FILLER_27_293
*747 FILLER_27_3
*748 FILLER_27_39
*749 FILLER_27_51
*750 FILLER_27_55
*751 FILLER_27_57
*752 FILLER_27_69
*753 FILLER_27_81
*754 FILLER_27_93
*755 FILLER_28_109
*756 FILLER_28_121
*757 FILLER_28_133
*758 FILLER_28_139
*759 FILLER_28_141
*760 FILLER_28_15
*761 FILLER_28_153
*762 FILLER_28_165
*763 FILLER_28_177
*764 FILLER_28_189
*765 FILLER_28_195
*766 FILLER_28_197
*767 FILLER_28_209
*768 FILLER_28_221
*769 FILLER_28_233
*770 FILLER_28_245
*771 FILLER_28_251
*772 FILLER_28_253
*773 FILLER_28_265
*774 FILLER_28_27
*775 FILLER_28_277
*776 FILLER_28_289
*777 FILLER_28_29
*778 FILLER_28_297
*779 FILLER_28_3
*780 FILLER_28_41
*781 FILLER_28_53
*782 FILLER_28_65
*783 FILLER_28_77
*784 FILLER_28_83
*785 FILLER_28_85
*786 FILLER_28_97
*787 FILLER_29_105
*788 FILLER_29_111
*789 FILLER_29_113
*790 FILLER_29_125
*791 FILLER_29_137
*792 FILLER_29_149
*793 FILLER_29_15
*794 FILLER_29_161
*795 FILLER_29_167
*796 FILLER_29_169
*797 FILLER_29_181
*798 FILLER_29_193
*799 FILLER_29_205
*800 FILLER_29_217
*801 FILLER_29_223
*802 FILLER_29_225
*803 FILLER_29_237
*804 FILLER_29_249
*805 FILLER_29_261
*806 FILLER_29_27
*807 FILLER_29_273
*808 FILLER_29_279
*809 FILLER_29_281
*810 FILLER_29_293
*811 FILLER_29_3
*812 FILLER_29_39
*813 FILLER_29_51
*814 FILLER_29_55
*815 FILLER_29_57
*816 FILLER_29_69
*817 FILLER_29_81
*818 FILLER_29_93
*819 FILLER_2_109
*820 FILLER_2_121
*821 FILLER_2_133
*822 FILLER_2_139
*823 FILLER_2_141
*824 FILLER_2_15
*825 FILLER_2_153
*826 FILLER_2_165
*827 FILLER_2_177
*828 FILLER_2_189
*829 FILLER_2_195
*830 FILLER_2_197
*831 FILLER_2_209
*832 FILLER_2_221
*833 FILLER_2_233
*834 FILLER_2_245
*835 FILLER_2_251
*836 FILLER_2_253
*837 FILLER_2_265
*838 FILLER_2_27
*839 FILLER_2_277
*840 FILLER_2_289
*841 FILLER_2_29
*842 FILLER_2_297
*843 FILLER_2_3
*844 FILLER_2_41
*845 FILLER_2_53
*846 FILLER_2_65
*847 FILLER_2_77
*848 FILLER_2_83
*849 FILLER_2_85
*850 FILLER_2_97
*851 FILLER_30_109
*852 FILLER_30_121
*853 FILLER_30_133
*854 FILLER_30_139
*855 FILLER_30_141
*856 FILLER_30_15
*857 FILLER_30_153
*858 FILLER_30_165
*859 FILLER_30_177
*860 FILLER_30_189
*861 FILLER_30_195
*862 FILLER_30_197
*863 FILLER_30_209
*864 FILLER_30_221
*865 FILLER_30_233
*866 FILLER_30_245
*867 FILLER_30_251
*868 FILLER_30_253
*869 FILLER_30_265
*870 FILLER_30_27
*871 FILLER_30_277
*872 FILLER_30_289
*873 FILLER_30_29
*874 FILLER_30_297
*875 FILLER_30_3
*876 FILLER_30_41
*877 FILLER_30_53
*878 FILLER_30_65
*879 FILLER_30_77
*880 FILLER_30_83
*881 FILLER_30_85
*882 FILLER_30_97
*883 FILLER_31_105
*884 FILLER_31_111
*885 FILLER_31_113
*886 FILLER_31_125
*887 FILLER_31_137
*888 FILLER_31_149
*889 FILLER_31_15
*890 FILLER_31_161
*891 FILLER_31_167
*892 FILLER_31_169
*893 FILLER_31_181
*894 FILLER_31_193
*895 FILLER_31_205
*896 FILLER_31_217
*897 FILLER_31_223
*898 FILLER_31_225
*899 FILLER_31_237
*900 FILLER_31_249
*901 FILLER_31_261
*902 FILLER_31_27
*903 FILLER_31_273
*904 FILLER_31_279
*905 FILLER_31_281
*906 FILLER_31_293
*907 FILLER_31_3
*908 FILLER_31_39
*909 FILLER_31_51
*910 FILLER_31_55
*911 FILLER_31_57
*912 FILLER_31_69
*913 FILLER_31_81
*914 FILLER_31_93
*915 FILLER_32_109
*916 FILLER_32_121
*917 FILLER_32_133
*918 FILLER_32_139
*919 FILLER_32_141
*920 FILLER_32_15
*921 FILLER_32_153
*922 FILLER_32_165
*923 FILLER_32_177
*924 FILLER_32_189
*925 FILLER_32_195
*926 FILLER_32_197
*927 FILLER_32_209
*928 FILLER_32_221
*929 FILLER_32_233
*930 FILLER_32_245
*931 FILLER_32_251
*932 FILLER_32_253
*933 FILLER_32_265
*934 FILLER_32_27
*935 FILLER_32_277
*936 FILLER_32_289
*937 FILLER_32_29
*938 FILLER_32_297
*939 FILLER_32_3
*940 FILLER_32_41
*941 FILLER_32_53
*942 FILLER_32_65
*943 FILLER_32_77
*944 FILLER_32_83
*945 FILLER_32_85
*946 FILLER_32_97
*947 FILLER_33_105
*948 FILLER_33_111
*949 FILLER_33_113
*950 FILLER_33_125
*951 FILLER_33_137
*952 FILLER_33_149
*953 FILLER_33_15
*954 FILLER_33_161
*955 FILLER_33_167
*956 FILLER_33_169
*957 FILLER_33_181
*958 FILLER_33_193
*959 FILLER_33_205
*960 FILLER_33_217
*961 FILLER_33_223
*962 FILLER_33_225
*963 FILLER_33_237
*964 FILLER_33_249
*965 FILLER_33_261
*966 FILLER_33_27
*967 FILLER_33_273
*968 FILLER_33_279
*969 FILLER_33_281
*970 FILLER_33_293
*971 FILLER_33_3
*972 FILLER_33_39
*973 FILLER_33_51
*974 FILLER_33_55
*975 FILLER_33_57
*976 FILLER_33_69
*977 FILLER_33_81
*978 FILLER_33_93
*979 FILLER_34_109
*980 FILLER_34_121
*981 FILLER_34_133
*982 FILLER_34_139
*983 FILLER_34_141
*984 FILLER_34_15
*985 FILLER_34_153
*986 FILLER_34_165
*987 FILLER_34_177
*988 FILLER_34_189
*989 FILLER_34_195
*990 FILLER_34_197
*991 FILLER_34_209
*992 FILLER_34_221
*993 FILLER_34_233
*994 FILLER_34_245
*995 FILLER_34_251
*996 FILLER_34_253
*997 FILLER_34_265
*998 FILLER_34_27
*999 FILLER_34_277
*1000 FILLER_34_289
*1001 FILLER_34_29
*1002 FILLER_34_297
*1003 FILLER_34_3
*1004 FILLER_34_41
*1005 FILLER_34_53
*1006 FILLER_34_65
*1007 FILLER_34_77
*1008 FILLER_34_83
*1009 FILLER_34_85
*1010 FILLER_34_97
*1011 FILLER_35_105
*1012 FILLER_35_111
*1013 FILLER_35_113
*1014 FILLER_35_125
*1015 FILLER_35_137
*1016 FILLER_35_149
*1017 FILLER_35_15
*1018 FILLER_35_161
*1019 FILLER_35_167
*1020 FILLER_35_169
*1021 FILLER_35_181
*1022 FILLER_35_193
*1023 FILLER_35_205
*1024 FILLER_35_217
*1025 FILLER_35_223
*1026 FILLER_35_225
*1027 FILLER_35_237
*1028 FILLER_35_249
*1029 FILLER_35_261
*1030 FILLER_35_27
*1031 FILLER_35_273
*1032 FILLER_35_279
*1033 FILLER_35_281
*1034 FILLER_35_293
*1035 FILLER_35_3
*1036 FILLER_35_39
*1037 FILLER_35_51
*1038 FILLER_35_55
*1039 FILLER_35_57
*1040 FILLER_35_69
*1041 FILLER_35_81
*1042 FILLER_35_93
*1043 FILLER_36_109
*1044 FILLER_36_121
*1045 FILLER_36_133
*1046 FILLER_36_139
*1047 FILLER_36_141
*1048 FILLER_36_15
*1049 FILLER_36_153
*1050 FILLER_36_165
*1051 FILLER_36_177
*1052 FILLER_36_189
*1053 FILLER_36_195
*1054 FILLER_36_197
*1055 FILLER_36_209
*1056 FILLER_36_221
*1057 FILLER_36_233
*1058 FILLER_36_245
*1059 FILLER_36_251
*1060 FILLER_36_253
*1061 FILLER_36_265
*1062 FILLER_36_27
*1063 FILLER_36_277
*1064 FILLER_36_289
*1065 FILLER_36_29
*1066 FILLER_36_297
*1067 FILLER_36_3
*1068 FILLER_36_41
*1069 FILLER_36_53
*1070 FILLER_36_65
*1071 FILLER_36_77
*1072 FILLER_36_83
*1073 FILLER_36_85
*1074 FILLER_36_97
*1075 FILLER_37_105
*1076 FILLER_37_111
*1077 FILLER_37_113
*1078 FILLER_37_125
*1079 FILLER_37_137
*1080 FILLER_37_149
*1081 FILLER_37_15
*1082 FILLER_37_161
*1083 FILLER_37_167
*1084 FILLER_37_169
*1085 FILLER_37_181
*1086 FILLER_37_193
*1087 FILLER_37_205
*1088 FILLER_37_217
*1089 FILLER_37_223
*1090 FILLER_37_225
*1091 FILLER_37_237
*1092 FILLER_37_249
*1093 FILLER_37_261
*1094 FILLER_37_27
*1095 FILLER_37_273
*1096 FILLER_37_279
*1097 FILLER_37_281
*1098 FILLER_37_293
*1099 FILLER_37_3
*1100 FILLER_37_39
*1101 FILLER_37_51
*1102 FILLER_37_55
*1103 FILLER_37_57
*1104 FILLER_37_69
*1105 FILLER_37_81
*1106 FILLER_37_93
*1107 FILLER_38_109
*1108 FILLER_38_121
*1109 FILLER_38_133
*1110 FILLER_38_139
*1111 FILLER_38_141
*1112 FILLER_38_15
*1113 FILLER_38_153
*1114 FILLER_38_165
*1115 FILLER_38_177
*1116 FILLER_38_189
*1117 FILLER_38_195
*1118 FILLER_38_197
*1119 FILLER_38_209
*1120 FILLER_38_221
*1121 FILLER_38_233
*1122 FILLER_38_245
*1123 FILLER_38_251
*1124 FILLER_38_253
*1125 FILLER_38_265
*1126 FILLER_38_27
*1127 FILLER_38_277
*1128 FILLER_38_289
*1129 FILLER_38_29
*1130 FILLER_38_297
*1131 FILLER_38_3
*1132 FILLER_38_41
*1133 FILLER_38_53
*1134 FILLER_38_65
*1135 FILLER_38_77
*1136 FILLER_38_83
*1137 FILLER_38_85
*1138 FILLER_38_97
*1139 FILLER_39_105
*1140 FILLER_39_111
*1141 FILLER_39_113
*1142 FILLER_39_125
*1143 FILLER_39_137
*1144 FILLER_39_149
*1145 FILLER_39_15
*1146 FILLER_39_161
*1147 FILLER_39_167
*1148 FILLER_39_169
*1149 FILLER_39_181
*1150 FILLER_39_193
*1151 FILLER_39_205
*1152 FILLER_39_217
*1153 FILLER_39_223
*1154 FILLER_39_225
*1155 FILLER_39_237
*1156 FILLER_39_249
*1157 FILLER_39_261
*1158 FILLER_39_27
*1159 FILLER_39_273
*1160 FILLER_39_279
*1161 FILLER_39_281
*1162 FILLER_39_293
*1163 FILLER_39_3
*1164 FILLER_39_39
*1165 FILLER_39_51
*1166 FILLER_39_55
*1167 FILLER_39_57
*1168 FILLER_39_69
*1169 FILLER_39_81
*1170 FILLER_39_93
*1171 FILLER_3_105
*1172 FILLER_3_111
*1173 FILLER_3_113
*1174 FILLER_3_125
*1175 FILLER_3_137
*1176 FILLER_3_149
*1177 FILLER_3_15
*1178 FILLER_3_161
*1179 FILLER_3_167
*1180 FILLER_3_169
*1181 FILLER_3_181
*1182 FILLER_3_193
*1183 FILLER_3_205
*1184 FILLER_3_217
*1185 FILLER_3_223
*1186 FILLER_3_225
*1187 FILLER_3_237
*1188 FILLER_3_249
*1189 FILLER_3_261
*1190 FILLER_3_27
*1191 FILLER_3_273
*1192 FILLER_3_279
*1193 FILLER_3_281
*1194 FILLER_3_293
*1195 FILLER_3_3
*1196 FILLER_3_39
*1197 FILLER_3_51
*1198 FILLER_3_55
*1199 FILLER_3_57
*1200 FILLER_3_69
*1201 FILLER_3_81
*1202 FILLER_3_93
*1203 FILLER_40_109
*1204 FILLER_40_121
*1205 FILLER_40_133
*1206 FILLER_40_139
*1207 FILLER_40_141
*1208 FILLER_40_15
*1209 FILLER_40_153
*1210 FILLER_40_165
*1211 FILLER_40_177
*1212 FILLER_40_189
*1213 FILLER_40_195
*1214 FILLER_40_197
*1215 FILLER_40_209
*1216 FILLER_40_221
*1217 FILLER_40_233
*1218 FILLER_40_245
*1219 FILLER_40_251
*1220 FILLER_40_253
*1221 FILLER_40_265
*1222 FILLER_40_27
*1223 FILLER_40_277
*1224 FILLER_40_289
*1225 FILLER_40_29
*1226 FILLER_40_297
*1227 FILLER_40_3
*1228 FILLER_40_41
*1229 FILLER_40_53
*1230 FILLER_40_65
*1231 FILLER_40_77
*1232 FILLER_40_83
*1233 FILLER_40_85
*1234 FILLER_40_97
*1235 FILLER_41_105
*1236 FILLER_41_111
*1237 FILLER_41_113
*1238 FILLER_41_125
*1239 FILLER_41_137
*1240 FILLER_41_149
*1241 FILLER_41_15
*1242 FILLER_41_161
*1243 FILLER_41_167
*1244 FILLER_41_169
*1245 FILLER_41_181
*1246 FILLER_41_193
*1247 FILLER_41_205
*1248 FILLER_41_217
*1249 FILLER_41_223
*1250 FILLER_41_225
*1251 FILLER_41_237
*1252 FILLER_41_249
*1253 FILLER_41_261
*1254 FILLER_41_27
*1255 FILLER_41_273
*1256 FILLER_41_279
*1257 FILLER_41_281
*1258 FILLER_41_293
*1259 FILLER_41_3
*1260 FILLER_41_39
*1261 FILLER_41_51
*1262 FILLER_41_55
*1263 FILLER_41_57
*1264 FILLER_41_69
*1265 FILLER_41_81
*1266 FILLER_41_93
*1267 FILLER_42_109
*1268 FILLER_42_121
*1269 FILLER_42_133
*1270 FILLER_42_139
*1271 FILLER_42_141
*1272 FILLER_42_15
*1273 FILLER_42_153
*1274 FILLER_42_165
*1275 FILLER_42_177
*1276 FILLER_42_189
*1277 FILLER_42_195
*1278 FILLER_42_197
*1279 FILLER_42_209
*1280 FILLER_42_221
*1281 FILLER_42_233
*1282 FILLER_42_245
*1283 FILLER_42_251
*1284 FILLER_42_253
*1285 FILLER_42_265
*1286 FILLER_42_27
*1287 FILLER_42_277
*1288 FILLER_42_289
*1289 FILLER_42_29
*1290 FILLER_42_297
*1291 FILLER_42_3
*1292 FILLER_42_41
*1293 FILLER_42_53
*1294 FILLER_42_65
*1295 FILLER_42_77
*1296 FILLER_42_83
*1297 FILLER_42_85
*1298 FILLER_42_97
*1299 FILLER_43_105
*1300 FILLER_43_111
*1301 FILLER_43_113
*1302 FILLER_43_125
*1303 FILLER_43_137
*1304 FILLER_43_149
*1305 FILLER_43_15
*1306 FILLER_43_161
*1307 FILLER_43_167
*1308 FILLER_43_169
*1309 FILLER_43_181
*1310 FILLER_43_193
*1311 FILLER_43_205
*1312 FILLER_43_217
*1313 FILLER_43_223
*1314 FILLER_43_225
*1315 FILLER_43_237
*1316 FILLER_43_249
*1317 FILLER_43_261
*1318 FILLER_43_27
*1319 FILLER_43_273
*1320 FILLER_43_279
*1321 FILLER_43_281
*1322 FILLER_43_293
*1323 FILLER_43_3
*1324 FILLER_43_39
*1325 FILLER_43_51
*1326 FILLER_43_55
*1327 FILLER_43_57
*1328 FILLER_43_69
*1329 FILLER_43_81
*1330 FILLER_43_93
*1331 FILLER_44_109
*1332 FILLER_44_121
*1333 FILLER_44_133
*1334 FILLER_44_139
*1335 FILLER_44_141
*1336 FILLER_44_15
*1337 FILLER_44_153
*1338 FILLER_44_165
*1339 FILLER_44_177
*1340 FILLER_44_189
*1341 FILLER_44_195
*1342 FILLER_44_197
*1343 FILLER_44_209
*1344 FILLER_44_221
*1345 FILLER_44_233
*1346 FILLER_44_245
*1347 FILLER_44_251
*1348 FILLER_44_253
*1349 FILLER_44_265
*1350 FILLER_44_27
*1351 FILLER_44_277
*1352 FILLER_44_289
*1353 FILLER_44_29
*1354 FILLER_44_297
*1355 FILLER_44_3
*1356 FILLER_44_41
*1357 FILLER_44_53
*1358 FILLER_44_65
*1359 FILLER_44_77
*1360 FILLER_44_83
*1361 FILLER_44_85
*1362 FILLER_44_97
*1363 FILLER_45_105
*1364 FILLER_45_111
*1365 FILLER_45_113
*1366 FILLER_45_125
*1367 FILLER_45_137
*1368 FILLER_45_149
*1369 FILLER_45_15
*1370 FILLER_45_161
*1371 FILLER_45_167
*1372 FILLER_45_169
*1373 FILLER_45_181
*1374 FILLER_45_193
*1375 FILLER_45_205
*1376 FILLER_45_217
*1377 FILLER_45_223
*1378 FILLER_45_225
*1379 FILLER_45_237
*1380 FILLER_45_249
*1381 FILLER_45_261
*1382 FILLER_45_27
*1383 FILLER_45_273
*1384 FILLER_45_279
*1385 FILLER_45_281
*1386 FILLER_45_293
*1387 FILLER_45_3
*1388 FILLER_45_39
*1389 FILLER_45_51
*1390 FILLER_45_55
*1391 FILLER_45_57
*1392 FILLER_45_69
*1393 FILLER_45_81
*1394 FILLER_45_93
*1395 FILLER_46_109
*1396 FILLER_46_121
*1397 FILLER_46_133
*1398 FILLER_46_139
*1399 FILLER_46_141
*1400 FILLER_46_15
*1401 FILLER_46_153
*1402 FILLER_46_165
*1403 FILLER_46_177
*1404 FILLER_46_189
*1405 FILLER_46_195
*1406 FILLER_46_197
*1407 FILLER_46_209
*1408 FILLER_46_221
*1409 FILLER_46_233
*1410 FILLER_46_245
*1411 FILLER_46_251
*1412 FILLER_46_253
*1413 FILLER_46_265
*1414 FILLER_46_27
*1415 FILLER_46_277
*1416 FILLER_46_289
*1417 FILLER_46_29
*1418 FILLER_46_297
*1419 FILLER_46_3
*1420 FILLER_46_41
*1421 FILLER_46_53
*1422 FILLER_46_65
*1423 FILLER_46_77
*1424 FILLER_46_83
*1425 FILLER_46_85
*1426 FILLER_46_97
*1427 FILLER_47_105
*1428 FILLER_47_111
*1429 FILLER_47_113
*1430 FILLER_47_125
*1431 FILLER_47_137
*1432 FILLER_47_149
*1433 FILLER_47_15
*1434 FILLER_47_161
*1435 FILLER_47_167
*1436 FILLER_47_169
*1437 FILLER_47_181
*1438 FILLER_47_193
*1439 FILLER_47_205
*1440 FILLER_47_217
*1441 FILLER_47_223
*1442 FILLER_47_225
*1443 FILLER_47_237
*1444 FILLER_47_249
*1445 FILLER_47_261
*1446 FILLER_47_27
*1447 FILLER_47_273
*1448 FILLER_47_279
*1449 FILLER_47_281
*1450 FILLER_47_293
*1451 FILLER_47_3
*1452 FILLER_47_39
*1453 FILLER_47_51
*1454 FILLER_47_55
*1455 FILLER_47_57
*1456 FILLER_47_69
*1457 FILLER_47_81
*1458 FILLER_47_93
*1459 FILLER_48_109
*1460 FILLER_48_121
*1461 FILLER_48_133
*1462 FILLER_48_139
*1463 FILLER_48_141
*1464 FILLER_48_15
*1465 FILLER_48_153
*1466 FILLER_48_165
*1467 FILLER_48_177
*1468 FILLER_48_189
*1469 FILLER_48_195
*1470 FILLER_48_197
*1471 FILLER_48_209
*1472 FILLER_48_221
*1473 FILLER_48_233
*1474 FILLER_48_245
*1475 FILLER_48_251
*1476 FILLER_48_253
*1477 FILLER_48_265
*1478 FILLER_48_27
*1479 FILLER_48_277
*1480 FILLER_48_289
*1481 FILLER_48_29
*1482 FILLER_48_297
*1483 FILLER_48_3
*1484 FILLER_48_41
*1485 FILLER_48_53
*1486 FILLER_48_65
*1487 FILLER_48_77
*1488 FILLER_48_83
*1489 FILLER_48_85
*1490 FILLER_48_97
*1491 FILLER_49_105
*1492 FILLER_49_111
*1493 FILLER_49_113
*1494 FILLER_49_125
*1495 FILLER_49_137
*1496 FILLER_49_149
*1497 FILLER_49_15
*1498 FILLER_49_161
*1499 FILLER_49_167
*1500 FILLER_49_169
*1501 FILLER_49_181
*1502 FILLER_49_193
*1503 FILLER_49_205
*1504 FILLER_49_217
*1505 FILLER_49_223
*1506 FILLER_49_225
*1507 FILLER_49_237
*1508 FILLER_49_249
*1509 FILLER_49_261
*1510 FILLER_49_27
*1511 FILLER_49_273
*1512 FILLER_49_279
*1513 FILLER_49_281
*1514 FILLER_49_293
*1515 FILLER_49_3
*1516 FILLER_49_39
*1517 FILLER_49_51
*1518 FILLER_49_55
*1519 FILLER_49_57
*1520 FILLER_49_69
*1521 FILLER_49_81
*1522 FILLER_49_93
*1523 FILLER_4_109
*1524 FILLER_4_121
*1525 FILLER_4_133
*1526 FILLER_4_139
*1527 FILLER_4_141
*1528 FILLER_4_15
*1529 FILLER_4_153
*1530 FILLER_4_165
*1531 FILLER_4_177
*1532 FILLER_4_189
*1533 FILLER_4_195
*1534 FILLER_4_197
*1535 FILLER_4_209
*1536 FILLER_4_221
*1537 FILLER_4_233
*1538 FILLER_4_245
*1539 FILLER_4_251
*1540 FILLER_4_253
*1541 FILLER_4_265
*1542 FILLER_4_27
*1543 FILLER_4_277
*1544 FILLER_4_289
*1545 FILLER_4_29
*1546 FILLER_4_297
*1547 FILLER_4_3
*1548 FILLER_4_41
*1549 FILLER_4_53
*1550 FILLER_4_65
*1551 FILLER_4_77
*1552 FILLER_4_83
*1553 FILLER_4_85
*1554 FILLER_4_97
*1555 FILLER_50_109
*1556 FILLER_50_121
*1557 FILLER_50_133
*1558 FILLER_50_139
*1559 FILLER_50_141
*1560 FILLER_50_15
*1561 FILLER_50_153
*1562 FILLER_50_165
*1563 FILLER_50_177
*1564 FILLER_50_189
*1565 FILLER_50_195
*1566 FILLER_50_197
*1567 FILLER_50_209
*1568 FILLER_50_221
*1569 FILLER_50_233
*1570 FILLER_50_245
*1571 FILLER_50_251
*1572 FILLER_50_253
*1573 FILLER_50_265
*1574 FILLER_50_27
*1575 FILLER_50_277
*1576 FILLER_50_289
*1577 FILLER_50_29
*1578 FILLER_50_297
*1579 FILLER_50_3
*1580 FILLER_50_41
*1581 FILLER_50_53
*1582 FILLER_50_65
*1583 FILLER_50_77
*1584 FILLER_50_83
*1585 FILLER_50_85
*1586 FILLER_50_97
*1587 FILLER_51_105
*1588 FILLER_51_109
*1589 FILLER_51_113
*1590 FILLER_51_118
*1591 FILLER_51_127
*1592 FILLER_51_135
*1593 FILLER_51_139
*1594 FILLER_51_147
*1595 FILLER_51_15
*1596 FILLER_51_151
*1597 FILLER_51_163
*1598 FILLER_51_167
*1599 FILLER_51_169
*1600 FILLER_51_181
*1601 FILLER_51_193
*1602 FILLER_51_201
*1603 FILLER_51_205
*1604 FILLER_51_209
*1605 FILLER_51_213
*1606 FILLER_51_221
*1607 FILLER_51_225
*1608 FILLER_51_231
*1609 FILLER_51_238
*1610 FILLER_51_245
*1611 FILLER_51_251
*1612 FILLER_51_255
*1613 FILLER_51_262