*SPEF "ieee 1481-1999"
*DESIGN "tiny_user_project"
*DATE "11:11:11 Fri 11 11, 1111"
*VENDOR "OpenRCX"
*PROGRAM "Parallel Extraction"
*VERSION "1.0"
*DESIGN_FLOW "NAME_SCOPE LOCAL" "PIN_CAP NONE"
*DIVIDER /
*DELIMITER :
*BUS_DELIMITER []
*T_UNIT 1 NS
*C_UNIT 1 PF
*R_UNIT 1 OHM
*L_UNIT 1 HENRY

*NAME_MAP
*1 io_in[0]
*2 io_in[10]
*3 io_in[11]
*4 io_in[12]
*5 io_in[13]
*6 io_in[14]
*7 io_in[15]
*8 io_in[16]
*9 io_in[17]
*10 io_in[18]
*11 io_in[19]
*12 io_in[1]
*13 io_in[20]
*14 io_in[21]
*15 io_in[22]
*16 io_in[23]
*17 io_in[24]
*18 io_in[25]
*19 io_in[26]
*20 io_in[27]
*21 io_in[28]
*22 io_in[29]
*23 io_in[2]
*24 io_in[30]
*25 io_in[31]
*26 io_in[32]
*27 io_in[33]
*28 io_in[34]
*29 io_in[35]
*30 io_in[36]
*31 io_in[37]
*32 io_in[3]
*33 io_in[4]
*34 io_in[5]
*35 io_in[6]
*36 io_in[7]
*37 io_in[8]
*38 io_in[9]
*39 net17
*40 net27
*41 net28
*42 net29
*43 net30
*44 net31
*45 net32
*46 net33
*47 net34
*48 net35
*49 net36
*50 net18
*51 net37
*52 net38
*53 net39
*54 net40
*55 net41
*56 net42
*57 net43
*58 net44
*59 net45
*60 net46
*61 net19
*62 net47
*63 net48
*64 net49
*65 net50
*66 net51
*67 net52
*68 net53
*69 net54
*70 net20
*71 net21
*72 net22
*73 net23
*74 net24
*75 net25
*76 net26
*77 net55
*78 net65
*79 net66
*80 net67
*81 net68
*82 net69
*83 net70
*84 io_out[16]
*85 io_out[17]
*86 io_out[18]
*87 io_out[19]
*88 net56
*89 io_out[20]
*90 io_out[21]
*91 io_out[22]
*92 io_out[23]
*93 net71
*94 net72
*95 net73
*96 net74
*97 net75
*98 net76
*99 net57
*100 net77
*101 net78
*102 net79
*103 net80
*104 net81
*105 net82
*106 net83
*107 net84
*108 net58
*109 net59
*110 net60
*111 net61
*112 net62
*113 net63
*114 net64
*117 _000_
*118 _001_
*119 _002_
*120 _003_
*121 _004_
*122 _005_
*123 _006_
*124 _007_
*125 _008_
*126 _009_
*127 _010_
*128 _011_
*129 _012_
*130 _013_
*131 _014_
*132 _015_
*133 _016_
*134 _017_
*135 _018_
*136 _019_
*137 _020_
*138 _021_
*139 _022_
*140 _023_
*141 _024_
*142 _025_
*143 _026_
*144 _027_
*145 _028_
*146 _029_
*147 _030_
*148 _031_
*149 _032_
*150 _033_
*151 _034_
*152 _035_
*153 _036_
*154 _037_
*155 _038_
*156 _039_
*157 _040_
*158 _041_
*159 _042_
*160 _043_
*161 _044_
*162 _045_
*163 net1
*164 net10
*165 net11
*166 net12
*167 net13
*168 net14
*169 net15
*170 net16
*171 net2
*172 net3
*173 net4
*174 net5
*175 net6
*176 net7
*177 net8
*178 net9
*179 ANTENNA_input1_A
*180 ANTENNA_input2_A
*181 ANTENNA_input3_A
*182 ANTENNA_input4_A
*183 ANTENNA_input5_A
*184 ANTENNA_input6_A
*185 ANTENNA_input7_A
*186 ANTENNA_input8_A
*187 FILLER_0_109
*188 FILLER_0_113
*189 FILLER_0_125
*190 FILLER_0_137
*191 FILLER_0_141
*192 FILLER_0_15
*193 FILLER_0_153
*194 FILLER_0_165
*195 FILLER_0_169
*196 FILLER_0_181
*197 FILLER_0_193
*198 FILLER_0_197
*199 FILLER_0_209
*200 FILLER_0_221
*201 FILLER_0_225
*202 FILLER_0_237
*203 FILLER_0_249
*204 FILLER_0_253
*205 FILLER_0_265
*206 FILLER_0_27
*207 FILLER_0_277
*208 FILLER_0_281
*209 FILLER_0_29
*210 FILLER_0_293
*211 FILLER_0_3
*212 FILLER_0_41
*213 FILLER_0_53
*214 FILLER_0_57
*215 FILLER_0_69
*216 FILLER_0_81
*217 FILLER_0_85
*218 FILLER_0_97
*219 FILLER_10_109
*220 FILLER_10_121
*221 FILLER_10_133
*222 FILLER_10_139
*223 FILLER_10_141
*224 FILLER_10_15
*225 FILLER_10_153
*226 FILLER_10_165
*227 FILLER_10_177
*228 FILLER_10_189
*229 FILLER_10_195
*230 FILLER_10_197
*231 FILLER_10_209
*232 FILLER_10_221
*233 FILLER_10_233
*234 FILLER_10_245
*235 FILLER_10_251
*236 FILLER_10_253
*237 FILLER_10_265
*238 FILLER_10_27
*239 FILLER_10_277
*240 FILLER_10_289
*241 FILLER_10_29
*242 FILLER_10_297
*243 FILLER_10_3
*244 FILLER_10_41
*245 FILLER_10_53
*246 FILLER_10_65
*247 FILLER_10_77
*248 FILLER_10_83
*249 FILLER_10_85
*250 FILLER_10_97
*251 FILLER_11_105
*252 FILLER_11_111
*253 FILLER_11_113
*254 FILLER_11_125
*255 FILLER_11_137
*256 FILLER_11_149
*257 FILLER_11_15
*258 FILLER_11_161
*259 FILLER_11_167
*260 FILLER_11_169
*261 FILLER_11_181
*262 FILLER_11_193
*263 FILLER_11_205
*264 FILLER_11_217
*265 FILLER_11_223
*266 FILLER_11_225
*267 FILLER_11_237
*268 FILLER_11_249
*269 FILLER_11_261
*270 FILLER_11_27
*271 FILLER_11_273
*272 FILLER_11_279
*273 FILLER_11_281
*274 FILLER_11_293
*275 FILLER_11_3
*276 FILLER_11_39
*277 FILLER_11_51
*278 FILLER_11_55
*279 FILLER_11_57
*280 FILLER_11_69
*281 FILLER_11_81
*282 FILLER_11_93
*283 FILLER_12_109
*284 FILLER_12_121
*285 FILLER_12_133
*286 FILLER_12_139
*287 FILLER_12_141
*288 FILLER_12_15
*289 FILLER_12_153
*290 FILLER_12_165
*291 FILLER_12_177
*292 FILLER_12_189
*293 FILLER_12_195
*294 FILLER_12_197
*295 FILLER_12_209
*296 FILLER_12_221
*297 FILLER_12_233
*298 FILLER_12_245
*299 FILLER_12_251
*300 FILLER_12_253
*301 FILLER_12_265
*302 FILLER_12_27
*303 FILLER_12_277
*304 FILLER_12_289
*305 FILLER_12_29
*306 FILLER_12_297
*307 FILLER_12_3
*308 FILLER_12_41
*309 FILLER_12_53
*310 FILLER_12_65
*311 FILLER_12_77
*312 FILLER_12_83
*313 FILLER_12_85
*314 FILLER_12_97
*315 FILLER_13_105
*316 FILLER_13_111
*317 FILLER_13_113
*318 FILLER_13_125
*319 FILLER_13_137
*320 FILLER_13_149
*321 FILLER_13_15
*322 FILLER_13_161
*323 FILLER_13_167
*324 FILLER_13_169
*325 FILLER_13_181
*326 FILLER_13_193
*327 FILLER_13_205
*328 FILLER_13_217
*329 FILLER_13_223
*330 FILLER_13_225
*331 FILLER_13_237
*332 FILLER_13_249
*333 FILLER_13_261
*334 FILLER_13_27
*335 FILLER_13_273
*336 FILLER_13_279
*337 FILLER_13_281
*338 FILLER_13_293
*339 FILLER_13_3
*340 FILLER_13_39
*341 FILLER_13_51
*342 FILLER_13_55
*343 FILLER_13_57
*344 FILLER_13_69
*345 FILLER_13_81
*346 FILLER_13_93
*347 FILLER_14_109
*348 FILLER_14_121
*349 FILLER_14_133
*350 FILLER_14_139
*351 FILLER_14_141
*352 FILLER_14_15
*353 FILLER_14_153
*354 FILLER_14_165
*355 FILLER_14_177
*356 FILLER_14_189
*357 FILLER_14_195
*358 FILLER_14_197
*359 FILLER_14_209
*360 FILLER_14_221
*361 FILLER_14_233
*362 FILLER_14_245
*363 FILLER_14_251
*364 FILLER_14_253
*365 FILLER_14_265
*366 FILLER_14_27
*367 FILLER_14_277
*368 FILLER_14_289
*369 FILLER_14_29
*370 FILLER_14_297
*371 FILLER_14_3
*372 FILLER_14_41
*373 FILLER_14_53
*374 FILLER_14_65
*375 FILLER_14_77
*376 FILLER_14_83
*377 FILLER_14_85
*378 FILLER_14_97
*379 FILLER_15_105
*380 FILLER_15_111
*381 FILLER_15_113
*382 FILLER_15_125
*383 FILLER_15_137
*384 FILLER_15_149
*385 FILLER_15_15
*386 FILLER_15_161
*387 FILLER_15_167
*388 FILLER_15_169
*389 FILLER_15_181
*390 FILLER_15_193
*391 FILLER_15_205
*392 FILLER_15_217
*393 FILLER_15_223
*394 FILLER_15_225
*395 FILLER_15_237
*396 FILLER_15_249
*397 FILLER_15_261
*398 FILLER_15_27
*399 FILLER_15_273
*400 FILLER_15_279
*401 FILLER_15_281
*402 FILLER_15_293
*403 FILLER_15_3
*404 FILLER_15_39
*405 FILLER_15_51
*406 FILLER_15_55
*407 FILLER_15_57
*408 FILLER_15_69
*409 FILLER_15_81
*410 FILLER_15_93
*411 FILLER_16_109
*412 FILLER_16_121
*413 FILLER_16_133
*414 FILLER_16_139
*415 FILLER_16_141
*416 FILLER_16_15
*417 FILLER_16_153
*418 FILLER_16_165
*419 FILLER_16_177
*420 FILLER_16_189
*421 FILLER_16_195
*422 FILLER_16_197
*423 FILLER_16_209
*424 FILLER_16_221
*425 FILLER_16_233
*426 FILLER_16_245
*427 FILLER_16_251
*428 FILLER_16_253
*429 FILLER_16_265
*430 FILLER_16_27
*431 FILLER_16_277
*432 FILLER_16_289
*433 FILLER_16_29
*434 FILLER_16_297
*435 FILLER_16_3
*436 FILLER_16_41
*437 FILLER_16_53
*438 FILLER_16_65
*439 FILLER_16_77
*440 FILLER_16_83
*441 FILLER_16_85
*442 FILLER_16_97
*443 FILLER_17_105
*444 FILLER_17_111
*445 FILLER_17_113
*446 FILLER_17_125
*447 FILLER_17_137
*448 FILLER_17_149
*449 FILLER_17_15
*450 FILLER_17_161
*451 FILLER_17_167
*452 FILLER_17_169
*453 FILLER_17_181
*454 FILLER_17_193
*455 FILLER_17_205
*456 FILLER_17_217
*457 FILLER_17_223
*458 FILLER_17_225
*459 FILLER_17_237
*460 FILLER_17_249
*461 FILLER_17_261
*462 FILLER_17_27
*463 FILLER_17_273
*464 FILLER_17_279
*465 FILLER_17_281
*466 FILLER_17_293
*467 FILLER_17_3
*468 FILLER_17_39
*469 FILLER_17_51
*470 FILLER_17_55
*471 FILLER_17_57
*472 FILLER_17_69
*473 FILLER_17_81
*474 FILLER_17_93
*475 FILLER_18_109
*476 FILLER_18_121
*477 FILLER_18_133
*478 FILLER_18_139
*479 FILLER_18_141
*480 FILLER_18_15
*481 FILLER_18_153
*482 FILLER_18_165
*483 FILLER_18_177
*484 FILLER_18_189
*485 FILLER_18_195
*486 FILLER_18_197
*487 FILLER_18_209
*488 FILLER_18_221
*489 FILLER_18_233
*490 FILLER_18_245
*491 FILLER_18_251
*492 FILLER_18_253
*493 FILLER_18_265
*494 FILLER_18_27
*495 FILLER_18_277
*496 FILLER_18_289
*497 FILLER_18_29
*498 FILLER_18_297
*499 FILLER_18_3
*500 FILLER_18_41
*501 FILLER_18_53
*502 FILLER_18_65
*503 FILLER_18_77
*504 FILLER_18_83
*505 FILLER_18_85
*506 FILLER_18_97
*507 FILLER_19_105
*508 FILLER_19_111
*509 FILLER_19_113
*510 FILLER_19_125
*511 FILLER_19_137
*512 FILLER_19_149
*513 FILLER_19_15
*514 FILLER_19_161
*515 FILLER_19_167
*516 FILLER_19_169
*517 FILLER_19_181
*518 FILLER_19_193
*519 FILLER_19_205
*520 FILLER_19_217
*521 FILLER_19_223
*522 FILLER_19_225
*523 FILLER_19_237
*524 FILLER_19_249
*525 FILLER_19_261
*526 FILLER_19_27
*527 FILLER_19_273
*528 FILLER_19_279
*529 FILLER_19_281
*530 FILLER_19_293
*531 FILLER_19_3
*532 FILLER_19_39
*533 FILLER_19_51
*534 FILLER_19_55
*535 FILLER_19_57
*536 FILLER_19_69
*537 FILLER_19_81
*538 FILLER_19_93
*539 FILLER_1_105
*540 FILLER_1_111
*541 FILLER_1_113
*542 FILLER_1_125
*543 FILLER_1_137
*544 FILLER_1_149
*545 FILLER_1_15
*546 FILLER_1_161
*547 FILLER_1_167
*548 FILLER_1_169
*549 FILLER_1_181
*550 FILLER_1_193
*551 FILLER_1_205
*552 FILLER_1_217
*553 FILLER_1_223
*554 FILLER_1_225
*555 FILLER_1_237
*556 FILLER_1_249
*557 FILLER_1_261
*558 FILLER_1_27
*559 FILLER_1_273
*560 FILLER_1_279
*561 FILLER_1_281
*562 FILLER_1_293
*563 FILLER_1_3
*564 FILLER_1_39
*565 FILLER_1_51
*566 FILLER_1_55
*567 FILLER_1_57
*568 FILLER_1_69
*569 FILLER_1_81
*570 FILLER_1_93
*571 FILLER_20_109
*572 FILLER_20_121
*573 FILLER_20_133
*574 FILLER_20_139
*575 FILLER_20_141
*576 FILLER_20_15
*577 FILLER_20_153
*578 FILLER_20_165
*579 FILLER_20_177
*580 FILLER_20_189
*581 FILLER_20_195
*582 FILLER_20_197
*583 FILLER_20_209
*584 FILLER_20_221
*585 FILLER_20_233
*586 FILLER_20_245
*587 FILLER_20_251
*588 FILLER_20_253
*589 FILLER_20_265
*590 FILLER_20_27
*591 FILLER_20_277
*592 FILLER_20_289
*593 FILLER_20_29
*594 FILLER_20_297
*595 FILLER_20_3
*596 FILLER_20_41
*597 FILLER_20_53
*598 FILLER_20_65
*599 FILLER_20_77
*600 FILLER_20_83
*601 FILLER_20_85
*602 FILLER_20_97
*603 FILLER_21_105
*604 FILLER_21_111
*605 FILLER_21_113
*606 FILLER_21_125
*607 FILLER_21_137
*608 FILLER_21_149
*609 FILLER_21_15
*610 FILLER_21_161
*611 FILLER_21_167
*612 FILLER_21_169
*613 FILLER_21_181
*614 FILLER_21_193
*615 FILLER_21_205
*616 FILLER_21_217
*617 FILLER_21_223
*618 FILLER_21_225
*619 FILLER_21_237
*620 FILLER_21_249
*621 FILLER_21_261
*622 FILLER_21_27
*623 FILLER_21_273
*624 FILLER_21_279
*625 FILLER_21_281
*626 FILLER_21_293
*627 FILLER_21_3
*628 FILLER_21_39
*629 FILLER_21_51
*630 FILLER_21_55
*631 FILLER_21_57
*632 FILLER_21_69
*633 FILLER_21_81
*634 FILLER_21_93
*635 FILLER_22_109
*636 FILLER_22_121
*637 FILLER_22_133
*638 FILLER_22_139
*639 FILLER_22_141
*640 FILLER_22_15
*641 FILLER_22_153
*642 FILLER_22_165
*643 FILLER_22_177
*644 FILLER_22_189
*645 FILLER_22_195
*646 FILLER_22_197
*647 FILLER_22_209
*648 FILLER_22_221
*649 FILLER_22_233
*650 FILLER_22_245
*651 FILLER_22_251
*652 FILLER_22_253
*653 FILLER_22_265
*654 FILLER_22_27
*655 FILLER_22_277
*656 FILLER_22_289
*657 FILLER_22_29
*658 FILLER_22_297
*659 FILLER_22_3
*660 FILLER_22_41
*661 FILLER_22_53
*662 FILLER_22_65
*663 FILLER_22_77
*664 FILLER_22_83
*665 FILLER_22_85
*666 FILLER_22_97
*667 FILLER_23_105
*668 FILLER_23_111
*669 FILLER_23_113
*670 FILLER_23_125
*671 FILLER_23_137
*672 FILLER_23_149
*673 FILLER_23_15
*674 FILLER_23_161
*675 FILLER_23_167
*676 FILLER_23_169
*677 FILLER_23_181
*678 FILLER_23_193
*679 FILLER_23_205
*680 FILLER_23_217
*681 FILLER_23_223
*682 FILLER_23_225
*683 FILLER_23_237
*684 FILLER_23_249
*685 FILLER_23_261
*686 FILLER_23_27
*687 FILLER_23_273
*688 FILLER_23_279
*689 FILLER_23_281
*690 FILLER_23_293
*691 FILLER_23_3
*692 FILLER_23_39
*693 FILLER_23_51
*694 FILLER_23_55
*695 FILLER_23_57
*696 FILLER_23_69
*697 FILLER_23_81
*698 FILLER_23_93
*699 FILLER_24_109
*700 FILLER_24_121
*701 FILLER_24_133
*702 FILLER_24_139
*703 FILLER_24_141
*704 FILLER_24_15
*705 FILLER_24_153
*706 FILLER_24_165
*707 FILLER_24_177
*708 FILLER_24_189
*709 FILLER_24_195
*710 FILLER_24_197
*711 FILLER_24_209
*712 FILLER_24_221
*713 FILLER_24_233
*714 FILLER_24_245
*715 FILLER_24_251
*716 FILLER_24_253
*717 FILLER_24_265
*718 FILLER_24_27
*719 FILLER_24_277
*720 FILLER_24_289
*721 FILLER_24_29
*722 FILLER_24_297
*723 FILLER_24_3
*724 FILLER_24_41
*725 FILLER_24_53
*726 FILLER_24_65
*727 FILLER_24_77
*728 FILLER_24_83
*729 FILLER_24_85
*730 FILLER_24_97
*731 FILLER_25_105
*732 FILLER_25_111
*733 FILLER_25_113
*734 FILLER_25_125
*735 FILLER_25_137
*736 FILLER_25_149
*737 FILLER_25_15
*738 FILLER_25_161
*739 FILLER_25_167
*740 FILLER_25_169
*741 FILLER_25_181
*742 FILLER_25_193
*743 FILLER_25_205
*744 FILLER_25_217
*745 FILLER_25_223
*746 FILLER_25_225
*747 FILLER_25_237
*748 FILLER_25_249
*749 FILLER_25_261
*750 FILLER_25_27
*751 FILLER_25_273
*752 FILLER_25_279
*753 FILLER_25_281
*754 FILLER_25_293
*755 FILLER_25_3
*756 FILLER_25_39
*757 FILLER_25_51
*758 FILLER_25_55
*759 FILLER_25_57
*760 FILLER_25_69
*761 FILLER_25_81
*762 FILLER_25_93
*763 FILLER_26_109
*764 FILLER_26_121
*765 FILLER_26_133
*766 FILLER_26_139
*767 FILLER_26_141
*768 FILLER_26_15
*769 FILLER_26_153
*770 FILLER_26_165
*771 FILLER_26_177
*772 FILLER_26_189
*773 FILLER_26_195
*774 FILLER_26_197
*775 FILLER_26_209
*776 FILLER_26_221
*777 FILLER_26_233
*778 FILLER_26_245
*779 FILLER_26_251
*780 FILLER_26_253
*781 FILLER_26_265
*782 FILLER_26_27
*783 FILLER_26_277
*784 FILLER_26_289
*785 FILLER_26_29
*786 FILLER_26_297
*787 FILLER_26_3
*788 FILLER_26_41
*789 FILLER_26_53
*790 FILLER_26_65
*791 FILLER_26_77
*792 FILLER_26_83
*793 FILLER_26_85
*794 FILLER_26_97
*795 FILLER_27_105
*796 FILLER_27_111
*797 FILLER_27_113
*798 FILLER_27_125
*799 FILLER_27_137
*800 FILLER_27_149
*801 FILLER_27_15
*802 FILLER_27_161
*803 FILLER_27_167
*804 FILLER_27_169
*805 FILLER_27_181
*806 FILLER_27_193
*807 FILLER_27_205
*808 FILLER_27_217
*809 FILLER_27_223
*810 FILLER_27_225
*811 FILLER_27_237
*812 FILLER_27_249
*813 FILLER_27_261
*814 FILLER_27_27
*815 FILLER_27_273
*816 FILLER_27_279
*817 FILLER_27_281
*818 FILLER_27_293
*819 FILLER_27_3
*820 FILLER_27_39
*821 FILLER_27_51
*822 FILLER_27_55
*823 FILLER_27_57
*824 FILLER_27_69
*825 FILLER_27_81
*826 FILLER_27_93
*827 FILLER_28_109
*828 FILLER_28_121
*829 FILLER_28_133
*830 FILLER_28_139
*831 FILLER_28_141
*832 FILLER_28_15
*833 FILLER_28_153
*834 FILLER_28_165
*835 FILLER_28_177
*836 FILLER_28_189
*837 FILLER_28_195
*838 FILLER_28_197
*839 FILLER_28_209
*840 FILLER_28_221
*841 FILLER_28_233
*842 FILLER_28_245
*843 FILLER_28_251
*844 FILLER_28_253
*845 FILLER_28_265
*846 FILLER_28_27
*847 FILLER_28_277
*848 FILLER_28_289
*849 FILLER_28_29
*850 FILLER_28_297
*851 FILLER_28_3
*852 FILLER_28_41
*853 FILLER_28_53
*854 FILLER_28_65
*855 FILLER_28_77
*856 FILLER_28_83
*857 FILLER_28_85
*858 FILLER_28_97
*859 FILLER_29_105
*860 FILLER_29_111
*861 FILLER_29_113
*862 FILLER_29_125
*863 FILLER_29_137
*864 FILLER_29_149
*865 FILLER_29_15
*866 FILLER_29_161
*867 FILLER_29_167
*868 FILLER_29_169
*869 FILLER_29_181
*870 FILLER_29_193
*871 FILLER_29_205
*872 FILLER_29_217
*873 FILLER_29_223
*874 FILLER_29_225
*875 FILLER_29_237
*876 FILLER_29_249
*877 FILLER_29_261
*878 FILLER_29_27
*879 FILLER_29_273
*880 FILLER_29_279
*881 FILLER_29_281
*882 FILLER_29_293
*883 FILLER_29_3
*884 FILLER_29_39
*885 FILLER_29_51
*886 FILLER_29_55
*887 FILLER_29_57
*888 FILLER_29_69
*889 FILLER_29_81
*890 FILLER_29_93
*891 FILLER_2_109
*892 FILLER_2_121
*893 FILLER_2_133
*894 FILLER_2_139
*895 FILLER_2_141
*896 FILLER_2_15
*897 FILLER_2_153
*898 FILLER_2_165
*899 FILLER_2_177
*900 FILLER_2_189
*901 FILLER_2_195
*902 FILLER_2_197
*903 FILLER_2_209
*904 FILLER_2_221
*905 FILLER_2_233
*906 FILLER_2_245
*907 FILLER_2_251
*908 FILLER_2_253
*909 FILLER_2_265
*910 FILLER_2_27
*911 FILLER_2_277
*912 FILLER_2_289
*913 FILLER_2_29
*914 FILLER_2_297
*915 FILLER_2_3
*916 FILLER_2_41
*917 FILLER_2_53
*918 FILLER_2_65
*919 FILLER_2_77
*920 FILLER_2_83
*921 FILLER_2_85
*922 FILLER_2_97
*923 FILLER_30_109
*924 FILLER_30_121
*925 FILLER_30_133
*926 FILLER_30_139
*927 FILLER_30_141
*928 FILLER_30_15
*929 FILLER_30_153
*930 FILLER_30_165
*931 FILLER_30_177
*932 FILLER_30_189
*933 FILLER_30_195
*934 FILLER_30_197
*935 FILLER_30_209
*936 FILLER_30_221
*937 FILLER_30_233
*938 FILLER_30_245
*939 FILLER_30_251
*940 FILLER_30_253
*941 FILLER_30_265
*942 FILLER_30_27
*943 FILLER_30_277
*944 FILLER_30_289
*945 FILLER_30_29
*946 FILLER_30_297
*947 FILLER_30_3
*948 FILLER_30_41
*949 FILLER_30_53
*950 FILLER_30_65
*951 FILLER_30_77
*952 FILLER_30_83
*953 FILLER_30_85
*954 FILLER_30_97
*955 FILLER_31_105
*956 FILLER_31_111
*957 FILLER_31_113
*958 FILLER_31_125
*959 FILLER_31_137
*960 FILLER_31_149
*961 FILLER_31_15
*962 FILLER_31_161
*963 FILLER_31_167
*964 FILLER_31_169
*965 FILLER_31_181
*966 FILLER_31_193
*967 FILLER_31_205
*968 FILLER_31_217
*969 FILLER_31_223
*970 FILLER_31_225
*971 FILLER_31_237
*972 FILLER_31_249
*973 FILLER_31_261
*974 FILLER_31_27
*975 FILLER_31_273
*976 FILLER_31_279
*977 FILLER_31_281
*978 FILLER_31_293
*979 FILLER_31_3
*980 FILLER_31_39
*981 FILLER_31_51
*982 FILLER_31_55
*983 FILLER_31_57
*984 FILLER_31_69
*985 FILLER_31_81
*986 FILLER_31_93
*987 FILLER_32_109
*988 FILLER_32_121
*989 FILLER_32_133
*990 FILLER_32_139
*991 FILLER_32_141
*992 FILLER_32_15
*993 FILLER_32_153
*994 FILLER_32_165
*995 FILLER_32_177
*996 FILLER_32_189
*997 FILLER_32_195
*998 FILLER_32_197
*999 FILLER_32_209
*1000 FILLER_32_221
*1001 FILLER_32_233
*1002 FILLER_32_245
*1003 FILLER_32_251
*1004 FILLER_32_253
*1005 FILLER_32_265
*1006 FILLER_32_27
*1007 FILLER_32_277
*1008 FILLER_32_289
*1009 FILLER_32_29
*1010 FILLER_32_297
*1011 FILLER_32_3
*1012 FILLER_32_41
*1013 FILLER_32_53
*1014 FILLER_32_65
*1015 FILLER_32_77
*1016 FILLER_32_83
*1017 FILLER_32_85
*1018 FILLER_32_97
*1019 FILLER_33_105
*1020 FILLER_33_111
*1021 FILLER_33_113
*1022 FILLER_33_125
*1023 FILLER_33_137
*1024 FILLER_33_149
*1025 FILLER_33_15
*1026 FILLER_33_161
*1027 FILLER_33_167
*1028 FILLER_33_169
*1029 FILLER_33_181
*1030 FILLER_33_193
*1031 FILLER_33_205
*1032 FILLER_33_217
*1033 FILLER_33_223
*1034 FILLER_33_225
*1035 FILLER_33_237
*1036 FILLER_33_249
*1037 FILLER_33_261
*1038 FILLER_33_27
*1039 FILLER_33_273
*1040 FILLER_33_279
*1041 FILLER_33_281
*1042 FILLER_33_293
*1043 FILLER_33_3
*1044 FILLER_33_39
*1045 FILLER_33_51
*1046 FILLER_33_55
*1047 FILLER_33_57
*1048 FILLER_33_69
*1049 FILLER_33_81
*1050 FILLER_33_93
*1051 FILLER_34_109
*1052 FILLER_34_121
*1053 FILLER_34_133
*1054 FILLER_34_139
*1055 FILLER_34_141
*1056 FILLER_34_15
*1057 FILLER_34_153
*1058 FILLER_34_165
*1059 FILLER_34_177
*1060 FILLER_34_189
*1061 FILLER_34_195
*1062 FILLER_34_197
*1063 FILLER_34_209
*1064 FILLER_34_221
*1065 FILLER_34_233
*1066 FILLER_34_245
*1067 FILLER_34_251
*1068 FILLER_34_253
*1069 FILLER_34_265
*1070 FILLER_34_27
*1071 FILLER_34_277
*1072 FILLER_34_289
*1073 FILLER_34_29
*1074 FILLER_34_297
*1075 FILLER_34_3
*1076 FILLER_34_41
*1077 FILLER_34_53
*1078 FILLER_34_65
*1079 FILLER_34_77
*1080 FILLER_34_83
*1081 FILLER_34_85
*1082 FILLER_34_97
*1083 FILLER_35_105
*1084 FILLER_35_111
*1085 FILLER_35_113
*1086 FILLER_35_125
*1087 FILLER_35_137
*1088 FILLER_35_149
*1089 FILLER_35_15
*1090 FILLER_35_161
*1091 FILLER_35_167
*1092 FILLER_35_169
*1093 FILLER_35_181
*1094 FILLER_35_193
*1095 FILLER_35_205
*1096 FILLER_35_217
*1097 FILLER_35_223
*1098 FILLER_35_225
*1099 FILLER_35_237
*1100 FILLER_35_249
*1101 FILLER_35_261
*1102 FILLER_35_27
*1103 FILLER_35_273
*1104 FILLER_35_279
*1105 FILLER_35_281
*1106 FILLER_35_293
*1107 FILLER_35_3
*1108 FILLER_35_39
*1109 FILLER_35_51
*1110 FILLER_35_55
*1111 FILLER_35_57
*1112 FILLER_35_69
*1113 FILLER_35_81
*1114 FILLER_35_93
*1115 FILLER_36_109
*1116 FILLER_36_121
*1117 FILLER_36_133
*1118 FILLER_36_139
*1119 FILLER_36_141
*1120 FILLER_36_15
*1121 FILLER_36_153
*1122 FILLER_36_165
*1123 FILLER_36_177
*1124 FILLER_36_189
*1125 FILLER_36_195
*1126 FILLER_36_197
*1127 FILLER_36_209
*1128 FILLER_36_221
*1129 FILLER_36_233
*1130 FILLER_36_245
*1131 FILLER_36_251
*1132 FILLER_36_253
*1133 FILLER_36_265
*1134 FILLER_36_27
*1135 FILLER_36_277
*1136 FILLER_36_289
*1137 FILLER_36_29
*1138 FILLER_36_297
*1139 FILLER_36_3
*1140 FILLER_36_41
*1141 FILLER_36_53
*1142 FILLER_36_65
*1143 FILLER_36_77
*1144 FILLER_36_83
*1145 FILLER_36_85
*1146 FILLER_36_97
*1147 FILLER_37_105
*1148 FILLER_37_111
*1149 FILLER_37_113
*1150 FILLER_37_125
*1151 FILLER_37_137
*1152 FILLER_37_149
*1153 FILLER_37_15
*1154 FILLER_37_161
*1155 FILLER_37_167
*1156 FILLER_37_169
*1157 FILLER_37_181
*1158 FILLER_37_193
*1159 FILLER_37_205
*1160 FILLER_37_217
*1161 FILLER_37_223
*1162 FILLER_37_225
*1163 FILLER_37_237
*1164 FILLER_37_249
*1165 FILLER_37_261
*1166 FILLER_37_27
*1167 FILLER_37_273
*1168 FILLER_37_279
*1169 FILLER_37_281
*1170 FILLER_37_293
*1171 FILLER_37_3
*1172 FILLER_37_39
*1173 FILLER_37_51
*1174 FILLER_37_55
*1175 FILLER_37_57
*1176 FILLER_37_69
*1177 FILLER_37_81
*1178 FILLER_37_93
*1179 FILLER_38_109
*1180 FILLER_38_121
*1181 FILLER_38_133
*1182 FILLER_38_139
*1183 FILLER_38_141
*1184 FILLER_38_15
*1185 FILLER_38_153
*1186 FILLER_38_165
*1187 FILLER_38_177
*1188 FILLER_38_189
*1189 FILLER_38_195
*1190 FILLER_38_197
*1191 FILLER_38_209
*1192 FILLER_38_221
*1193 FILLER_38_233
*1194 FILLER_38_245
*1195 FILLER_38_251
*1196 FILLER_38_253
*1197 FILLER_38_265
*1198 FILLER_38_27
*1199 FILLER_38_277
*1200 FILLER_38_289
*1201 FILLER_38_29
*1202 FILLER_38_297
*1203 FILLER_38_3
*1204 FILLER_38_41
*1205 FILLER_38_53
*1206 FILLER_38_65
*1207 FILLER_38_77
*1208 FILLER_38_83
*1209 FILLER_38_85
*1210 FILLER_38_97
*1211 FILLER_39_105
*1212 FILLER_39_111
*1213 FILLER_39_113
*1214 FILLER_39_125
*1215 FILLER_39_137
*1216 FILLER_39_149
*1217 FILLER_39_15
*1218 FILLER_39_161
*1219 FILLER_39_167
*1220 FILLER_39_169
*1221 FILLER_39_181
*1222 FILLER_39_193
*1223 FILLER_39_205
*1224 FILLER_39_217
*1225 FILLER_39_223
*1226 FILLER_39_225
*1227 FILLER_39_237
*1228 FILLER_39_249
*1229 FILLER_39_261
*1230 FILLER_39_27
*1231 FILLER_39_273
*1232 FILLER_39_279
*1233 FILLER_39_281
*1234 FILLER_39_293
*1235 FILLER_39_3
*1236 FILLER_39_39
*1237 FILLER_39_51
*1238 FILLER_39_55
*1239 FILLER_39_57
*1240 FILLER_39_69
*1241 FILLER_39_81
*1242 FILLER_39_93
*1243 FILLER_3_105
*1244 FILLER_3_111
*1245 FILLER_3_113
*1246 FILLER_3_125
*1247 FILLER_3_137
*1248 FILLER_3_149
*1249 FILLER_3_15
*1250 FILLER_3_161
*1251 FILLER_3_167
*1252 FILLER_3_169
*1253 FILLER_3_181
*1254 FILLER_3_193
*1255 FILLER_3_205
*1256 FILLER_3_217
*1257 FILLER_3_223
*1258 FILLER_3_225
*1259 FILLER_3_237
*1260 FILLER_3_249
*1261 FILLER_3_261
*1262 FILLER_3_27
*1263 FILLER_3_273
*1264 FILLER_3_279
*1265 FILLER_3_281
*1266 FILLER_3_293
*1267 FILLER_3_3
*1268 FILLER_3_39
*1269 FILLER_3_51
*1270 FILLER_3_55
*1271 FILLER_3_57
*1272 FILLER_3_69
*1273 FILLER_3_81
*1274 FILLER_3_93
*1275 FILLER_40_109
*1276 FILLER_40_121
*1277 FILLER_40_133
*1278 FILLER_40_139
*1279 FILLER_40_141
*1280 FILLER_40_15
*1281 FILLER_40_153
*1282 FILLER_40_165
*1283 FILLER_40_177
*1284 FILLER_40_189
*1285 FILLER_40_195
*1286 FILLER_40_197
*1287 FILLER_40_209
*1288 FILLER_40_221
*1289 FILLER_40_233
*1290 FILLER_40_245
*1291 FILLER_40_251
*1292 FILLER_40_253
*1293 FILLER_40_265
*1294 FILLER_40_27
*1295 FILLER_40_277
*1296 FILLER_40_289
*1297 FILLER_40_29
*1298 FILLER_40_297
*1299 FILLER_40_3
*1300 FILLER_40_41
*1301 FILLER_40_53
*1302 FILLER_40_65
*1303 FILLER_40_77
*1304 FILLER_40_83
*1305 FILLER_40_85
*1306 FILLER_40_97
*1307 FILLER_41_105
*1308 FILLER_41_111
*1309 FILLER_41_113
*1310 FILLER_41_125
*1311 FILLER_41_137
*1312 FILLER_41_149
*1313 FILLER_41_15
*1314 FILLER_41_161
*1315 FILLER_41_167
*1316 FILLER_41_169
*1317 FILLER_41_181
*1318 FILLER_41_193
*1319 FILLER_41_205
*1320 FILLER_41_217
*1321 FILLER_41_223
*1322 FILLER_41_225
*1323 FILLER_41_237
*1324 FILLER_41_249
*1325 FILLER_41_261
*1326 FILLER_41_27
*1327 FILLER_41_273
*1328 FILLER_41_279
*1329 FILLER_41_281
*1330 FILLER_41_293
*1331 FILLER_41_3
*1332 FILLER_41_39
*1333 FILLER_41_51
*1334 FILLER_41_55
*1335 FILLER_41_57
*1336 FILLER_41_69
*1337 FILLER_41_81
*1338 FILLER_41_93
*1339 FILLER_42_109
*1340 FILLER_42_121
*1341 FILLER_42_133
*1342 FILLER_42_139
*1343 FILLER_42_141
*1344 FILLER_42_15
*1345 FILLER_42_153
*1346 FILLER_42_165
*1347 FILLER_42_177
*1348 FILLER_42_189
*1349 FILLER_42_195
*1350 FILLER_42_197
*1351 FILLER_42_209
*1352 FILLER_42_221
*1353 FILLER_42_233
*1354 FILLER_42_245
*1355 FILLER_42_251
*1356 FILLER_42_253
*1357 FILLER_42_265
*1358 FILLER_42_27
*1359 FILLER_42_277
*1360 FILLER_42_289
*1361 FILLER_42_29
*1362 FILLER_42_297
*1363 FILLER_42_3
*1364 FILLER_42_41
*1365 FILLER_42_53
*1366 FILLER_42_65
*1367 FILLER_42_77
*1368 FILLER_42_83
*1369 FILLER_42_85
*1370 FILLER_42_97
*1371 FILLER_43_105
*1372 FILLER_43_111
*1373 FILLER_43_113
*1374 FILLER_43_125
*1375 FILLER_43_137
*1376 FILLER_43_149
*1377 FILLER_43_15
*1378 FILLER_43_161
*1379 FILLER_43_167
*1380 FILLER_43_169
*1381 FILLER_43_181
*1382 FILLER_43_193
*1383 FILLER_43_205
*1384 FILLER_43_217
*1385 FILLER_43_223
*1386 FILLER_43_225
*1387 FILLER_43_237
*1388 FILLER_43_249
*1389 FILLER_43_261
*1390 FILLER_43_27
*1391 FILLER_43_273
*1392 FILLER_43_279
*1393 FILLER_43_281
*1394 FILLER_43_293
*1395 FILLER_43_3
*1396 FILLER_43_39
*1397 FILLER_43_51
*1398 FILLER_43_55
*1399 FILLER_43_57
*1400 FILLER_43_69
*1401 FILLER_43_81
*1402 FILLER_43_93
*1403 FILLER_44_109
*1404 FILLER_44_121
*1405 FILLER_44_133
*1406 FILLER_44_139
*1407 FILLER_44_141
*1408 FILLER_44_15
*1409 FILLER_44_153
*1410 FILLER_44_165
*1411 FILLER_44_177
*1412 FILLER_44_189
*1413 FILLER_44_195
*1414 FILLER_44_197
*1415 FILLER_44_209
*1416 FILLER_44_221
*1417 FILLER_44_233
*1418 FILLER_44_245
*1419 FILLER_44_251
*1420 FILLER_44_253
*1421 FILLER_44_265
*1422 FILLER_44_27
*1423 FILLER_44_277
*1424 FILLER_44_289
*1425 FILLER_44_29
*1426 FILLER_44_297
*1427 FILLER_44_3
*1428 FILLER_44_41
*1429 FILLER_44_53
*1430 FILLER_44_65
*1431 FILLER_44_77
*1432 FILLER_44_83
*1433 FILLER_44_85
*1434 FILLER_44_97
*1435 FILLER_45_105
*1436 FILLER_45_111
*1437 FILLER_45_113
*1438 FILLER_45_119
*1439 FILLER_45_122
*1440 FILLER_45_129
*1441 FILLER_45_136
*1442 FILLER_45_143
*1443 FILLER_45_15
*1444 FILLER_45_150
*1445 FILLER_45_162
*1446 FILLER_45_169
*1447 FILLER_45_181
*1448 FILLER_45_193
*1449 FILLER_45_205
*1450 FILLER_45_217
*1451 FILLER_45_223
*1452 FILLER_45_225
*1453 FILLER_45_237
*1454 FILLER_45_249
*1455 FILLER_45_261
*1456 FILLER_45_27
*1457 FILLER_45_273
*1458 FILLER_45_279
*1459 FILLER_45_281
*1460 FILLER_45_293
*1461 FILLER_45_3
*1462 FILLER_45_39
*1463 FILLER_45_51
*1464 FILLER_45_55
*1465 FILLER_45_57
*1466 FILLER_45_69
*1467 FILLER_45_81
*1468 FILLER_45_93
*1469 FILLER_46_105
*1470 FILLER_46_111
*1471 FILLER_46_117
*1472 FILLER_46_121
*1473 FILLER_46_128
*1474 FILLER_46_136
*1475 FILLER_46_141
*1476 FILLER_46_147
*1477 FILLER_46_15
*1478 FILLER_46_154
*1479 FILLER_46_166
*1480 FILLER_46_178
*1481 FILLER_46_190
*1482 FILLER_46_197
*1483 FILLER_46_209
*1484 FILLER_46_221
*1485 FILLER_46_233
*1486 FILLER_46_245
*1487 FILLER_46_251
*1488 FILLER_46_253
*1489 FILLER_46_265
*1490 FILLER_46_27
*1491 FILLER_46_277
*1492 FILLER_46_289
*1493 FILLER_46_29
*1494 FILLER_46_297
*1495 FILLER_46_3
*1496 FILLER_46_41
*1497 FILLER_46_53
*1498 FILLER_46_65
*1499 FILLER_46_77
*1500 FILLER_46_83
*1501 FILLER_46_85
*1502 FILLER_46_97
*1503 FILLER_47_103
*1504 FILLER_47_110
*1505 FILLER_47_113
*1506 FILLER_47_117
*1507 FILLER_47_124
*1508 FILLER_47_133
*1509 FILLER_47_142
*1510 FILLER_47_15
*1511 FILLER_47_150
*1512 FILLER_47_158
*1513 FILLER_47_166
*1514 FILLER_47_169
*1515 FILLER_47_181
*1516 FILLER_47_193
*1517 FILLER_47_205
*1518 FILLER_47_217
*1519 FILLER_47_223
*1520 FILLER_47_225
*1521 FILLER_47_237
*1522 FILLER_47_249
*1523 FILLER_47_261
*1524 FILLER_47_27
*1525 FILLER_47_273
*1526 FILLER_47_279
*1527 FILLER_47_281
*1528 FILLER_47_293
*1529 FILLER_47_3
*1530 FILLER_47_39
*1531 FILLER_47_51
*1532 FILLER_47_55
*1533 FILLER_47_57
*1534 FILLER_47_69
*1535 FILLER_47_81
*1536 FILLER_47_89
*1537 FILLER_47_92
*1538 FILLER_48_100
*1539 FILLER_48_107
*1540 FILLER_48_114
*1541 FILLER_48_123
*1542 FILLER_48_134
*1543 FILLER_48_141
*1544 FILLER_48_148
*1545 FILLER_48_15
*1546 FILLER_48_157
*1547 FILLER_48_165
*1548 FILLER_48_172
*1549 FILLER_48_184
*1550 FILLER_48_197
*1551 FILLER_48_209
*1552 FILLER_48_221
*1553 FILLER_48_233
*1554 FILLER_48_245
*1555 FILLER_48_251
*1556 FILLER_48_253
*1557 FILLER_48_265
*1558 FILLER_48_27
*1559 FILLER_48_277
*1560 FILLER_48_289
*1561 FILLER_48_29
*1562 FILLER_48_297
*1563 FILLER_48_3
*1564 FILLER_48_41
*1565 FILLER_48_53
*1566 FILLER_48_65
*1567 FILLER_48_77
*1568 FILLER_48_82
*1569 FILLER_48_85
*1570 FILLER_48_89
*1571 FILLER_48_93
*1572 FILLER_49_102
*1573 FILLER_49_110
*1574 FILLER_49_113
*1575 FILLER_49_126
*1576 FILLER_49_137
*1577 FILLER_49_141
*1578 FILLER_49_148
*1579 FILLER_49_15
*1580 FILLER_49_157
*1581 FILLER_49_166
*1582 FILLER_49_169
*1583 FILLER_49_174
*1584 FILLER_49_181
*1585 FILLER_49_193
*1586 FILLER_49_205
*1587 FILLER_49_217
*1588 FILLER_49_223
*1589 FILLER_49_225
*1590 FILLER_49_237
*1591 FILLER_49_249
*1592 FILLER_49_261
*1593 FILLER_49_27
*1594 FILLER_49_273
*1595 FILLER_49_279
*1596 FILLER_49_281
*1597 FILLER_49_293
*1598 FILLER_49_3
*1599 FILLER_49_39
*1600 FILLER_49_51
*1601 FILLER_49_55
*1602 FILLER_49_57
*1603 FILLER_49_63
*1604 FILLER_49_69
*1605 FILLER_49_73
*1606 FILLER_49_77
*1607 FILLER_49_81
*1608 FILLER_49_88
*1609 FILLER_49_95
*1610 FILLER_4_109
*1611 FILLER_4_121
*1612 FILLER_4_133
*1613 FILLER_4_139
*1614 FILLER_4_141
*1615 FILLER_4_15
*1616 FILLER_4_153
*1617 FILLER_4_165
*1618 FILLER_4_177
*1619 FILLER_4_189
*1620 FILLER_4_195
*1621 FILLER_4_197
*1622 FILLER_4_209
*1623 FILLER_4_221
*1624 FILLER_4_233
*1625 FILLER_4_245
*1626 FILLER_4_251
*1627 FILLER_4_253
*1628 FILLER_4_265
*1629 FILLER_4_27
*1630 FILLER_4_277
*1631 FILLER_4_289
*1632 FILLER_4_29
*1633 FILLER_4_297
*1634 FILLER_4_3
*1635 FILLER_4_41
*1636 FILLER_4_53